# generated using pymatgen
data_MnF2
_symmetry_space_group_name_H-M   'P 1'
_cell_length_a   9.74720000
_cell_length_b   9.74720000
_cell_length_c   6.60000000
_cell_angle_alpha   90.00000000
_cell_angle_beta   90.00000000
_cell_angle_gamma   90.00000000
_symmetry_Int_Tables_number   1
_chemical_formula_structural   MnF2
_chemical_formula_sum   'Mn16 F32'
_cell_volume   627.05219174
_cell_formula_units_Z   16
loop_
 _symmetry_equiv_pos_site_id
 _symmetry_equiv_pos_as_xyz
  1  'x, y, z'
loop_
 _atom_site_type_symbol
 _atom_site_label
 _atom_site_symmetry_multiplicity
 _atom_site_fract_x
 _atom_site_fract_y
 _atom_site_fract_z
 _atom_site_occupancy
  Mn  Mn0  1  0.00000000  0.00000000  0.00000000  1
  Mn  Mn1  1  0.00000000  0.00000000  0.50000000  1
  Mn  Mn2  1  0.00000000  0.50000000  0.00000000  1
  Mn  Mn3  1  0.00000000  0.50000000  0.50000000  1
  Mn  Mn4  1  0.50000000  0.00000000  0.00000000  1
  Mn  Mn5  1  0.50000000  0.00000000  0.50000000  1
  Mn  Mn6  1  0.50000000  0.50000000  0.00000000  1
  Mn  Mn7  1  0.50000000  0.50000000  0.50000000  1
  Mn  Mn8  1  0.25000000  0.25000000  0.25000000  1
  Mn  Mn9  1  0.25000000  0.25000000  0.75000000  1
  Mn  Mn10  1  0.25000000  0.75000000  0.25000000  1
  Mn  Mn11  1  0.25000000  0.75000000  0.75000000  1
  Mn  Mn12  1  0.75000000  0.25000000  0.25000000  1
  Mn  Mn13  1  0.75000000  0.25000000  0.75000000  1
  Mn  Mn14  1  0.75000000  0.75000000  0.25000000  1
  Mn  Mn15  1  0.75000000  0.75000000  0.75000000  1
  F  F16  1  0.15232000  0.15232000  0.00000000  1
  F  F17  1  0.15232000  0.15232000  0.50000000  1
  F  F18  1  0.15232000  0.65232000  0.00000000  1
  F  F19  1  0.15232000  0.65232000  0.50000000  1
  F  F20  1  0.65232000  0.15232000  0.00000000  1
  F  F21  1  0.65232000  0.15232000  0.50000000  1
  F  F22  1  0.65232000  0.65232000  0.00000000  1
  F  F23  1  0.65232000  0.65232000  0.50000000  1
  F  F24  1  0.09768000  0.40232000  0.25000000  1
  F  F25  1  0.09768000  0.40232000  0.75000000  1
  F  F26  1  0.09768000  0.90232000  0.25000000  1
  F  F27  1  0.09768000  0.90232000  0.75000000  1
  F  F28  1  0.59768000  0.40232000  0.25000000  1
  F  F29  1  0.59768000  0.40232000  0.75000000  1
  F  F30  1  0.59768000  0.90232000  0.25000000  1
  F  F31  1  0.59768000  0.90232000  0.75000000  1
  F  F32  1  0.40232000  0.09768000  0.25000000  1
  F  F33  1  0.40232000  0.09768000  0.75000000  1
  F  F34  1  0.40232000  0.59768000  0.25000000  1
  F  F35  1  0.40232000  0.59768000  0.75000000  1
  F  F36  1  0.90232000  0.09768000  0.25000000  1
  F  F37  1  0.90232000  0.09768000  0.75000000  1
  F  F38  1  0.90232000  0.59768000  0.25000000  1
  F  F39  1  0.90232000  0.59768000  0.75000000  1
  F  F40  1  0.34768000  0.34768000  0.00000000  1
  F  F41  1  0.34768000  0.34768000  0.50000000  1
  F  F42  1  0.34768000  0.84768000  0.00000000  1
  F  F43  1  0.34768000  0.84768000  0.50000000  1
  F  F44  1  0.84768000  0.34768000  0.00000000  1
  F  F45  1  0.84768000  0.34768000  0.50000000  1
  F  F46  1  0.84768000  0.84768000  0.00000000  1
  F  F47  1  0.84768000  0.84768000  0.50000000  1
