# generated using pymatgen
data_MnF2
_symmetry_space_group_name_H-M   'P 1'
_cell_length_a   9.74720000
_cell_length_b   9.74720000
_cell_length_c   13.20000000
_cell_angle_alpha   90.00000000
_cell_angle_beta   90.00000000
_cell_angle_gamma   90.00000000
_symmetry_Int_Tables_number   1
_chemical_formula_structural   MnF2
_chemical_formula_sum   'Mn32 F64'
_cell_volume   1254.10438349
_cell_formula_units_Z   32
loop_
 _symmetry_equiv_pos_site_id
 _symmetry_equiv_pos_as_xyz
  1  'x, y, z'
loop_
 _atom_site_type_symbol
 _atom_site_label
 _atom_site_symmetry_multiplicity
 _atom_site_fract_x
 _atom_site_fract_y
 _atom_site_fract_z
 _atom_site_occupancy
  Mn  Mn0  1  0.00000000  0.00000000  0.00000000  1
  Mn  Mn1  1  0.00000000  0.00000000  0.25000000  1
  Mn  Mn2  1  0.00000000  0.00000000  0.50000000  1
  Mn  Mn3  1  0.00000000  0.00000000  0.75000000  1
  Mn  Mn4  1  0.00000000  0.50000000  0.00000000  1
  Mn  Mn5  1  0.00000000  0.50000000  0.25000000  1
  Mn  Mn6  1  0.00000000  0.50000000  0.50000000  1
  Mn  Mn7  1  0.00000000  0.50000000  0.75000000  1
  Mn  Mn8  1  0.50000000  0.00000000  0.00000000  1
  Mn  Mn9  1  0.50000000  0.00000000  0.25000000  1
  Mn  Mn10  1  0.50000000  0.00000000  0.50000000  1
  Mn  Mn11  1  0.50000000  0.00000000  0.75000000  1
  Mn  Mn12  1  0.50000000  0.50000000  0.00000000  1
  Mn  Mn13  1  0.50000000  0.50000000  0.25000000  1
  Mn  Mn14  1  0.50000000  0.50000000  0.50000000  1
  Mn  Mn15  1  0.50000000  0.50000000  0.75000000  1
  Mn  Mn16  1  0.25000000  0.25000000  0.12500000  1
  Mn  Mn17  1  0.25000000  0.25000000  0.37500000  1
  Mn  Mn18  1  0.25000000  0.25000000  0.62500000  1
  Mn  Mn19  1  0.25000000  0.25000000  0.87500000  1
  Mn  Mn20  1  0.25000000  0.75000000  0.12500000  1
  Mn  Mn21  1  0.25000000  0.75000000  0.37500000  1
  Mn  Mn22  1  0.25000000  0.75000000  0.62500000  1
  Mn  Mn23  1  0.25000000  0.75000000  0.87500000  1
  Mn  Mn24  1  0.75000000  0.25000000  0.12500000  1
  Mn  Mn25  1  0.75000000  0.25000000  0.37500000  1
  Mn  Mn26  1  0.75000000  0.25000000  0.62500000  1
  Mn  Mn27  1  0.75000000  0.25000000  0.87500000  1
  Mn  Mn28  1  0.75000000  0.75000000  0.12500000  1
  Mn  Mn29  1  0.75000000  0.75000000  0.37500000  1
  Mn  Mn30  1  0.75000000  0.75000000  0.62500000  1
  Mn  Mn31  1  0.75000000  0.75000000  0.87500000  1
  F  F32  1  0.15232000  0.15232000  0.00000000  1
  F  F33  1  0.15232000  0.15232000  0.25000000  1
  F  F34  1  0.15232000  0.15232000  0.50000000  1
  F  F35  1  0.15232000  0.15232000  0.75000000  1
  F  F36  1  0.15232000  0.65232000  0.00000000  1
  F  F37  1  0.15232000  0.65232000  0.25000000  1
  F  F38  1  0.15232000  0.65232000  0.50000000  1
  F  F39  1  0.15232000  0.65232000  0.75000000  1
  F  F40  1  0.65232000  0.15232000  0.00000000  1
  F  F41  1  0.65232000  0.15232000  0.25000000  1
  F  F42  1  0.65232000  0.15232000  0.50000000  1
  F  F43  1  0.65232000  0.15232000  0.75000000  1
  F  F44  1  0.65232000  0.65232000  0.00000000  1
  F  F45  1  0.65232000  0.65232000  0.25000000  1
  F  F46  1  0.65232000  0.65232000  0.50000000  1
  F  F47  1  0.65232000  0.65232000  0.75000000  1
  F  F48  1  0.09768000  0.40232000  0.12500000  1
  F  F49  1  0.09768000  0.40232000  0.37500000  1
  F  F50  1  0.09768000  0.40232000  0.62500000  1
  F  F51  1  0.09768000  0.40232000  0.87500000  1
  F  F52  1  0.09768000  0.90232000  0.12500000  1
  F  F53  1  0.09768000  0.90232000  0.37500000  1
  F  F54  1  0.09768000  0.90232000  0.62500000  1
  F  F55  1  0.09768000  0.90232000  0.87500000  1
  F  F56  1  0.59768000  0.40232000  0.12500000  1
  F  F57  1  0.59768000  0.40232000  0.37500000  1
  F  F58  1  0.59768000  0.40232000  0.62500000  1
  F  F59  1  0.59768000  0.40232000  0.87500000  1
  F  F60  1  0.59768000  0.90232000  0.12500000  1
  F  F61  1  0.59768000  0.90232000  0.37500000  1
  F  F62  1  0.59768000  0.90232000  0.62500000  1
  F  F63  1  0.59768000  0.90232000  0.87500000  1
  F  F64  1  0.40232000  0.09768000  0.12500000  1
  F  F65  1  0.40232000  0.09768000  0.37500000  1
  F  F66  1  0.40232000  0.09768000  0.62500000  1
  F  F67  1  0.40232000  0.09768000  0.87500000  1
  F  F68  1  0.40232000  0.59768000  0.12500000  1
  F  F69  1  0.40232000  0.59768000  0.37500000  1
  F  F70  1  0.40232000  0.59768000  0.62500000  1
  F  F71  1  0.40232000  0.59768000  0.87500000  1
  F  F72  1  0.90232000  0.09768000  0.12500000  1
  F  F73  1  0.90232000  0.09768000  0.37500000  1
  F  F74  1  0.90232000  0.09768000  0.62500000  1
  F  F75  1  0.90232000  0.09768000  0.87500000  1
  F  F76  1  0.90232000  0.59768000  0.12500000  1
  F  F77  1  0.90232000  0.59768000  0.37500000  1
  F  F78  1  0.90232000  0.59768000  0.62500000  1
  F  F79  1  0.90232000  0.59768000  0.87500000  1
  F  F80  1  0.34768000  0.34768000  0.00000000  1
  F  F81  1  0.34768000  0.34768000  0.25000000  1
  F  F82  1  0.34768000  0.34768000  0.50000000  1
  F  F83  1  0.34768000  0.34768000  0.75000000  1
  F  F84  1  0.34768000  0.84768000  0.00000000  1
  F  F85  1  0.34768000  0.84768000  0.25000000  1
  F  F86  1  0.34768000  0.84768000  0.50000000  1
  F  F87  1  0.34768000  0.84768000  0.75000000  1
  F  F88  1  0.84768000  0.34768000  0.00000000  1
  F  F89  1  0.84768000  0.34768000  0.25000000  1
  F  F90  1  0.84768000  0.34768000  0.50000000  1
  F  F91  1  0.84768000  0.34768000  0.75000000  1
  F  F92  1  0.84768000  0.84768000  0.00000000  1
  F  F93  1  0.84768000  0.84768000  0.25000000  1
  F  F94  1  0.84768000  0.84768000  0.50000000  1
  F  F95  1  0.84768000  0.84768000  0.75000000  1
